@<TRIPOS>MOLECULE
CM1
   10     9     1     0     0
SMALL
RESP Charge
 
 
@<TRIPOS>ATOM
      1 N          21.2010   10.0750  -61.5570 N         1 CM1     -0.415700
      2 CA         20.4810    8.8080  -61.4880 CX        1 CM1     -0.035100
      3 C          21.3180    7.6840  -60.8450 C         1 CM1      0.597300
      4 O          22.4260    7.4080  -61.3060 O         1 CM1     -0.567900
      5 CB         19.9970    8.3940  -62.8840 CT        1 CM1     -0.040984
      6 SG         18.6850    7.1320  -62.8750 Y1        1 CM1     -0.511786
      7 H          21.3670   10.4410  -62.4870 H         1 CM1      0.253505
      8 HA         19.6030    8.9850  -60.8630 H1        1 CM1      0.101773
      9 HB3        20.8450    8.0600  -63.4840 H1        1 CM1      0.076070
     10 HB2        19.6320    9.2750  -63.4140 H1        1 CM1      0.076070
@<TRIPOS>BOND
     1    1    2 1
     2    1    7 1
     3    2    3 1
     4    2    5 1
     5    2    8 1
     6    3    4 1
     7    5    6 1
     8    5    9 1
     9    5   10 1
@<TRIPOS>SUBSTRUCTURE
     1 CM1         1 TEMP              0 ****  ****    0 ROOT
