@<TRIPOS>MOLECULE
HEM
   78    82     1     0     0
SMALL
bcc


@<TRIPOS>ATOM
      1 CHA         17.1190    10.6180   -60.6360 c3       474 HEM      -0.019000
      2 CHB         16.8930     9.9490   -65.4280 c3       474 HEM      -0.030000
      3 CHC         15.7210     5.3510   -64.6850 c3       474 HEM      -0.043000
      4 CHD         16.0890     5.9740   -59.9040 c3       474 HEM      -0.050000
      5 C1A         17.1390    10.8740   -62.0160 c2       474 HEM      -0.017000
      6 C2A         17.2390    12.1270   -62.6070 c2       474 HEM      -0.110000
      7 C3A         17.1860    11.9300   -63.9730 c2       474 HEM      -0.119000
      8 C4A         17.0500    10.5680   -64.1780 c2       474 HEM      -0.057000
      9 CMA         17.2020    13.0120   -65.0430 c3       474 HEM      -0.160000
     10 CAA         17.3190    13.4890   -61.9200 c3       474 HEM      -0.161000
     11 CBA         18.7160    14.1470   -62.0620 c3       474 HEM      -0.177000
     12 CGA         18.9190    15.4560   -61.2610 c2       474 HEM       0.433000
     13 O1A         20.0350    16.0070   -61.3880 o        474 HEM      -0.215000
     14 O2A         17.9970    15.9100   -60.5430 o        474 HEM      -0.215000
     15 C1B         16.5300     8.6260   -65.7150 c2       474 HEM      -0.049000
     16 C2B         16.2730     8.0770   -66.9570 c2       474 HEM      -0.120000
     17 C3B         15.8350     6.7810   -66.7300 c2       474 HEM      -0.061000
     18 C4B         15.9350     6.5600   -65.3660 c2       474 HEM      -0.009000
     19 CMB         16.4200     8.8040   -68.2870 c3       474 HEM      -0.156000
     20 CAB         15.3490     5.7730   -67.6890 c3       474 HEM      -0.062000
     21 CBB         15.7400     5.6400   -68.9610 c2       474 HEM      -0.186000
     22 C1C         15.7490     5.0770   -63.3100 c2       474 HEM      -0.062000
     23 C2C         15.6420     3.8210   -62.7380 c2       474 HEM      -0.114000
     24 C3C         15.6800     4.0020   -61.3640 c2       474 HEM      -0.064000
     25 C4C         15.8920     5.3560   -61.1520 c2       474 HEM      -0.022000
     26 CMC         15.5280     2.5190   -63.5230 c3       474 HEM      -0.162000
     27 CAC         15.6040     2.9880   -60.2910 c3       474 HEM      -0.063000
     28 CBC         16.1310     1.7560   -60.3350 c2       474 HEM      -0.181000
     29 C1D         16.4090     7.3100   -59.6200 c2       474 HEM      -0.030000
     30 C2D         16.4910     7.9050   -58.3750 c2       474 HEM      -0.111000
     31 C3D         16.7900     9.2350   -58.5910 c2       474 HEM      -0.116000
     32 C4D         16.8870     9.4120   -59.9610 c2       474 HEM      -0.051000
     33 CMD         16.2470     7.2630   -57.0150 c3       474 HEM      -0.170000
     34 CAD         16.9290    10.3030   -57.5190 c3       474 HEM      -0.104000
     35 CBD         18.4050    10.5970   -57.1470 c3       474 HEM      -0.204000
     36 CGD         18.5650    11.6780   -56.0570 c2       474 HEM       0.296000
     37 O1D         19.5740    11.6110   -55.3190 o        474 HEM      -0.302000
     38 O2D         17.7030    12.5790   -55.9610 o        474 HEM      -0.302000
     39 NA          17.0230     9.9370   -62.9850 n2       474 HEM      -0.043000
     40 NB          16.3140     7.6980   -64.7690 n2       474 HEM      -0.072000
     41 NC          15.8960     5.9990   -62.3380 n2       474 HEM      -0.053000
     42 ND          16.6680     8.2330   -60.5640 n2       474 HEM      -0.054000
     43 HCHA        17.2620    11.4720   -59.9940 hc       474 HEM       0.186500
     44 HCHB        16.9790    10.5990   -66.2830 hc       474 HEM       0.101500
     45 HCHC        15.5120     4.5020   -65.3190 hc       474 HEM       0.112000
     46 HCHD        15.9810     5.3310   -59.0440 hc       474 HEM       0.114500
     47 HMA1        16.6140    12.7890   -65.7820 hc       474 HEM       0.084667
     48 HMA2        16.9010    13.8600   -64.6820 hc       474 HEM       0.084667
     49 HMA3        18.1000    13.1270   -65.3910 hc       474 HEM       0.084667
     50 HAA1        17.0810    13.3960   -60.9840 hc       474 HEM       0.122500
     51 HAA2        16.6370    14.0670   -62.2970 hc       474 HEM       0.122500
     52 HBA1        18.8800    14.3360   -62.9990 hc       474 HEM       0.116500
     53 HBA2        19.3960    13.5120   -61.7880 hc       474 HEM       0.116500
     54 HMB1        15.8480     8.4190   -68.9690 hc       474 HEM       0.083333
     55 HMB2        16.1710     9.7380   -68.2100 hc       474 HEM       0.083333
     56 HMB3        17.3390     8.7590   -68.5950 hc       474 HEM       0.083333
     57 HCAB        14.5830     5.1030   -67.3240 hc       474 HEM       0.000500
     58 HBB1        15.3240     4.9670   -69.5230 ha       474 HEM       0.144000
     59 HBB2        16.4360     6.1950   -69.3460 ha       474 HEM       0.144000
     60 HMC1        15.3430     1.7530   -62.9570 hc       474 HEM       0.085000
     61 HMC2        14.8160     2.5770   -64.1790 hc       474 HEM       0.085000
     62 HMC3        16.3590     2.3390   -63.9890 hc       474 HEM       0.085000
     63 HCAC        15.0570     3.2680   -59.4030 hc       474 HEM       0.001000
     64 HBC1        16.0180     1.1370   -59.5970 ha       474 HEM       0.146500
     65 HBC2        16.6430     1.4520   -61.1010 ha       474 HEM       0.146500
     66 HMD1        16.8600     7.6220   -56.3550 hc       474 HEM       0.089333
     67 HMD2        15.3400     7.4350   -56.7160 hc       474 HEM       0.089333
     68 HMD3        16.3830     6.3030   -57.0420 hc       474 HEM       0.089333
     69 HAD1        16.4400    10.0160   -56.7320 hc       474 HEM       0.100500
     70 HAD2        16.4800    11.1040   -57.8320 hc       474 HEM       0.100500
     71 HBD1        18.8900    10.8900   -57.9340 hc       474 HEM       0.124000
     72 HBD2        18.8270     9.7730   -56.8580 hc       474 HEM       0.124000
     73 HHA         17.2830    11.3540   -60.0920 hc       474 HEM       0.186500
     74 HHB         17.0520    10.4910   -66.1670 hc       474 HEM       0.101500
     75 HHC         15.5320     4.6210   -65.2290 hc       474 HEM       0.112000
     76 HHD         15.9940     5.4190   -59.1640 hc       474 HEM       0.114500
     77 HAB         14.6820     5.1460   -67.3670 hc       474 HEM       0.000500
     78 HAC         15.1300     3.2360   -59.4820 hc       474 HEM       0.001000
@<TRIPOS>BOND
     1     1     5 1   
     2     1    32 1   
     3     1    43 1   
     4     1    73 1   
     5     2     8 1   
     6     2    15 1   
     7     2    44 1   
     8     2    74 1   
     9     3    18 1   
    10     3    22 1   
    11     3    45 1   
    12     3    75 1   
    13     4    25 1   
    14     4    29 1   
    15     4    46 1   
    16     4    76 1   
    17     5     6 1   
    18     5    39 1   
    19     6     7 1   
    20     6    10 1   
    21     7     8 1   
    22     7     9 1   
    23     8    39 1   
    24     9    47 1   
    25     9    48 1   
    26     9    49 1   
    27    10    11 1   
    28    10    50 1   
    29    10    51 1   
    30    11    12 1   
    31    11    52 1   
    32    11    53 1   
    33    12    13 1   
    34    12    14 1   
    35    15    16 1   
    36    15    40 1   
    37    16    17 1   
    38    16    19 1   
    39    17    18 1   
    40    17    20 1   
    41    18    40 1   
    42    19    54 1   
    43    19    55 1   
    44    19    56 1   
    45    20    21 1   
    46    20    57 1   
    47    20    77 1   
    48    21    58 1   
    49    21    59 1   
    50    22    23 1   
    51    22    41 1   
    52    23    24 1   
    53    23    26 1   
    54    24    25 1   
    55    24    27 1   
    56    25    41 1   
    57    26    60 1   
    58    26    61 1   
    59    26    62 1   
    60    27    28 1   
    61    27    63 1   
    62    27    78 1   
    63    28    64 1   
    64    28    65 1   
    65    29    30 1   
    66    29    42 1   
    67    30    31 1   
    68    30    33 1   
    69    31    32 1   
    70    31    34 1   
    71    32    42 1   
    72    33    66 1   
    73    33    67 1   
    74    33    68 1   
    75    34    35 1   
    76    34    69 1   
    77    34    70 1   
    78    35    36 1   
    79    35    71 1   
    80    35    72 1   
    81    36    37 1   
    82    36    38 1   
@<TRIPOS>SUBSTRUCTURE
     1 HEM         1 TEMP              0 ****  ****    0 ROOT
