@<TRIPOS>MOLECULE
HM1
   72    76     1     0     0
SMALL
RESP Charge
 
 
@<TRIPOS>ATOM
      1 CHA        17.1190   10.6180  -60.6360 c3        1 HM1     -0.196400
      2 CHB        16.8930    9.9490  -65.4280 c3        1 HM1     -0.142826
      3 CHC        15.7210    5.3510  -64.6850 c3        1 HM1     -0.271213
      4 CHD        16.0890    5.9740  -59.9040 c3        1 HM1     -0.219402
      5 C1A        17.1390   10.8740  -62.0160 c2        1 HM1      0.069199
      6 C2A        17.2390   12.1270  -62.6070 c2        1 HM1     -0.101618
      7 C3A        17.1860   11.9300  -63.9730 c2        1 HM1      0.211133
      8 C4A        17.0500   10.5680  -64.1780 c2        1 HM1     -0.046741
      9 CMA        17.2020   13.0120  -65.0430 c3        1 HM1     -0.499955
     10 CAA        17.3190   13.4890  -61.9200 c3        1 HM1      0.000726
     11 CBA        18.7160   14.1470  -62.0620 c3        1 HM1     -0.091093
     12 CGA        18.9190   15.4560  -61.2610 c2        1 HM1      0.698644
     13 O1A        20.0350   16.0070  -61.3880 o         1 HM1     -0.662978
     14 O2A        17.9970   15.9100  -60.5430 o         1 HM1     -0.646775
     15 C1B        16.5300    8.6260  -65.7150 c2        1 HM1     -0.018461
     16 C2B        16.2730    8.0770  -66.9570 c2        1 HM1      0.200806
     17 C3B        15.8350    6.7810  -66.7300 c2        1 HM1     -0.129991
     18 C4B        15.9350    6.5600  -65.3660 c2        1 HM1      0.166675
     19 CMB        16.4200    8.8040  -68.2870 c3        1 HM1     -0.295526
     20 CAB        15.3490    5.7730  -67.6890 c3        1 HM1     -0.046002
     21 CBB        15.7400    5.6400  -68.9610 c2        1 HM1     -0.431696
     22 C1C        15.7490    5.0770  -63.3100 c2        1 HM1      0.134863
     23 C2C        15.6420    3.8210  -62.7380 c2        1 HM1      0.164625
     24 C3C        15.6800    4.0020  -61.3640 c2        1 HM1     -0.112822
     25 C4C        15.8920    5.3560  -61.1520 c2        1 HM1      0.216951
     26 CMC        15.5280    2.5190  -63.5230 c3        1 HM1     -0.292944
     27 CAC        15.6040    2.9880  -60.2910 c3        1 HM1     -0.048465
     28 CBC        16.1310    1.7560  -60.3350 c2        1 HM1     -0.419586
     29 C1D        16.4090    7.3100  -59.6200 c2        1 HM1      0.005646
     30 C2D        16.4910    7.9050  -58.3750 c2        1 HM1      0.220300
     31 C3D        16.7900    9.2350  -58.5910 c2        1 HM1     -0.075853
     32 C4D        16.8870    9.4120  -59.9610 c2        1 HM1      0.048553
     33 CMD        16.2470    7.2630  -57.0150 c3        1 HM1     -0.445952
     34 CAD        16.9290   10.3030  -57.5190 c3        1 HM1     -0.163589
     35 CBD        18.4050   10.5970  -57.1470 c3        1 HM1     -0.139145
     36 CGD        18.5650   11.6780  -56.0570 c2        1 HM1      0.685018
     37 O1D        19.5740   11.6110  -55.3190 o         1 HM1     -0.602998
     38 O2D        17.7030   12.5790  -55.9610 o         1 HM1     -0.622916
     39 NA         17.0230    9.9370  -62.9850 Y2        1 HM1     -0.255185
     40 NB         16.3140    7.6980  -64.7690 Y3        1 HM1     -0.316278
     41 NC         15.8960    5.9990  -62.3380 Y4        1 HM1     -0.480027
     42 ND         16.6680    8.2330  -60.5640 Y5        1 HM1     -0.294392
     43 HCHA       17.2620   11.4720  -59.9940 hc        1 HM1      0.231654
     44 HCHB       16.9790   10.5990  -66.2830 hc        1 HM1      0.126300
     45 HCHC       15.5120    4.5020  -65.3190 hc        1 HM1      0.135630
     46 HCHD       15.9810    5.3310  -59.0440 hc        1 HM1      0.131634
     47 HMA1       16.6140   12.7890  -65.7820 hc        1 HM1      0.126293
     48 HMA2       16.9010   13.8600  -64.6820 hc        1 HM1      0.126293
     49 HMA3       18.1000   13.1270  -65.3910 hc        1 HM1      0.126293
     50 HAA1       17.0810   13.3960  -60.9840 hc        1 HM1      0.016843
     51 HAA2       16.6370   14.0670  -62.2970 hc        1 HM1      0.016843
     52 HBA1       18.8800   14.3360  -62.9990 hc        1 HM1      0.007861
     53 HBA2       19.3960   13.5120  -61.7880 hc        1 HM1      0.007861
     54 HMB1       15.8480    8.4190  -68.9690 hc        1 HM1      0.072588
     55 HMB2       16.1710    9.7380  -68.2100 hc        1 HM1      0.072588
     56 HMB3       17.3390    8.7590  -68.5950 hc        1 HM1      0.072588
     57 HCAB       14.5830    5.1030  -67.3240 hc        1 HM1      0.097809
     58 HBB1       15.3240    4.9670  -69.5230 ha        1 HM1      0.149916
     59 HBB2       16.4360    6.1950  -69.3460 ha        1 HM1      0.149916
     60 HMC1       15.3430    1.7530  -62.9570 hc        1 HM1      0.072432
     61 HMC2       14.8160    2.5770  -64.1790 hc        1 HM1      0.072432
     62 HMC3       16.3590    2.3390  -63.9890 hc        1 HM1      0.072432
     63 HCAC       15.0570    3.2680  -59.4030 hc        1 HM1      0.088765
     64 HBC1       16.0180    1.1370  -59.5970 ha        1 HM1      0.155093
     65 HBC2       16.6430    1.4520  -61.1010 ha        1 HM1      0.155093
     66 HMD1       16.8600    7.6220  -56.3550 hc        1 HM1      0.108577
     67 HMD2       15.3400    7.4350  -56.7160 hc        1 HM1      0.108577
     68 HMD3       16.3830    6.3030  -57.0420 hc        1 HM1      0.108577
     69 HAD1       16.4400   10.0160  -56.7320 hc        1 HM1      0.065873
     70 HAD2       16.4800   11.1040  -57.8320 hc        1 HM1      0.065873
     71 HBD1       18.8900   10.8900  -57.9340 hc        1 HM1      0.059117
     72 HBD2       18.8270    9.7730  -56.8580 hc        1 HM1      0.059117
@<TRIPOS>BOND
     1    1    5 1
     2    1   32 1
     3    1   43 1
     4    2    8 1
     5    2   15 1
     6    2   44 1
     7    3   18 1
     8    3   22 1
     9    3   45 1
    10    4   25 1
    11    4   29 1
    12    4   46 1
    13    5    6 1
    14    5   39 1
    15    6    7 1
    16    6   10 1
    17    7    8 1
    18    7    9 1
    19    8   39 1
    20    9   47 1
    21    9   48 1
    22    9   49 1
    23   10   11 1
    24   10   50 1
    25   10   51 1
    26   11   12 1
    27   11   52 1
    28   11   53 1
    29   12   13 1
    30   12   14 1
    31   15   16 1
    32   15   40 1
    33   16   17 1
    34   16   19 1
    35   17   18 1
    36   17   20 1
    37   18   40 1
    38   19   54 1
    39   19   55 1
    40   19   56 1
    41   20   21 1
    42   20   57 1
    43   21   58 1
    44   21   59 1
    45   22   23 1
    46   22   41 1
    47   23   24 1
    48   23   26 1
    49   24   25 1
    50   24   27 1
    51   25   41 1
    52   26   60 1
    53   26   61 1
    54   26   62 1
    55   27   28 1
    56   27   63 1
    57   28   64 1
    58   28   65 1
    59   29   30 1
    60   29   42 1
    61   30   31 1
    62   30   33 1
    63   31   32 1
    64   31   34 1
    65   32   42 1
    66   33   66 1
    67   33   67 1
    68   33   68 1
    69   34   35 1
    70   34   69 1
    71   34   70 1
    72   35   36 1
    73   35   71 1
    74   35   72 1
    75   36   37 1
    76   36   38 1
@<TRIPOS>SUBSTRUCTURE
     1 HM1         1 TEMP              0 ****  ****    0 ROOT
